*HEADING
 MODE I CRACK, VON MISES WITH HYDROGEN --- FINITE STRAINS
*PREPRINT,ECHO=YES,MODEL=NO
*RESTART,WRITE, NUMBER INTERVAL=2
************************************************
************* MATERIAL PARAMETERS **************
**
*PARAMETER
** normalizing parameters
 C0 = 2.086E21
 S0 = 250.E6
 L  = 5.E-6
 T0 = 1.E0
 R  = 8.3144E0
 T  = 300.E0
** normalized material data
 AE      = (207.E9)/S0
 POISSON = 0.3E0
 SIG0    = (250.E6)/S0
 EXPO    = 5.E0
 AE0     = SIG0/AE
**
 D      = (1.27E-8)/(L*L/T0)
 VH     = (2.E-6)/(R*T/S0)
 KT     = 2.8E10
 ALPHA  = 1.E0
 NL     = (8.46E28)/C0
 BETA   = 1.E0
 LAMBDA = 0.281E0
**
**
*******NODES & SETS***********
**
*INCLUDE,INPUT=nodes
**
**********MPC'S*************
**
*MPC,INPUT=mpc
**
*******ELEMENTS***********
**
*INCLUDE,INPUT=elements
**
*******FIXED BOUNDARY CONDITIONS********
**
*BOUNDARY
 XAXIS, 2, 2
**
***********USER MATERIAL***************
**
*SOLID SECTION, ELSET=ALLE, CONTROLS=H1, MATERIAL=ONE
*SECTION CONTROLS, NAME=H1, HOURGLASS=STIFFNESS
*MATERIAL, NAME=ONE
**
*USER MATERIAL, CONSTANTS=13, TYPE=MECHANICAL, UNSYMM
 <AE>, <POISSON>, <SIG0>, <EXPO>,    <AE0>, <C0>, <D>, <VH>,
 <KT>,   <ALPHA>,   <NL>, <BETA>, <LAMBDA>
**
*USER MATERIAL, CONSTANTS=13, TYPE=THERMAL, UNSYMM
 <AE>, <POISSON>, <SIG0>, <EXPO>,    <AE0>, <C0>, <D>, <VH>,
 <KT>,   <ALPHA>,   <NL>, <BETA>, <LAMBDA>
**
*DEPVAR
** EBARP, YFLAG, PBAR, GRADPX, GRADPY, CL, CT, CTOTAL
** EHKK, SMALLC0, U0, NODAL COORDINATES (8)
 19
 1, EBARP, EBARP
 2, YFLAG, YFLAG
 3, PBAR,  PBAR
 4, GRADPX
 5, GRADPY
 6, CL
 7, CT
 8, CTOTAL
 9, EHKK
10, SMALLC0
11, U0
*DENSITY
 0.0314e-03
*CHARACTERISTIC LENGTH, DEFINITION=USER
**
************ INITIAL CONDITIONS ***********
**
*INITIAL CONDITIONS, TYPE=SOLUTION
 ALLE, 0., 0., 0., 0., 0., 1., 0.,
 0., 0., 0., 0., 0., 0., 0., 0.,
 0., 0., 0., 0.
*INITIAL CONDITIONS, TYPE=TEMPERATURE
 ALLN,  1.
************** LOADING AMPLITUDES **************
*AMPLITUDE, NAME=AMPSTEP, VALUE=RELATIVE, DEFINITION=TABULAR
 0.,1., 32.5, 1.
*AMPLITUDE, NAME=AMPRAMP, VALUE=RELATIVE, DEFINITION=TABULAR
 0.,0., 32.5, 1.
**
*******STEP*************************
**
*STEP, NLGEOM=YES
*DYNAMIC TEMPERATURE-DISPLACEMENT, EXPLICIT, ELEMENT BY ELEMENT
 ,32.5, , 3.25e-5
*BOUNDARY, USER, TYPE=DISPLACEMENT, AMPLITUDE=AMPRAMP
 BOUNDA,  1, 2
**
*******OUTPUT****************************
**
*OUTPUT,FIELD, VARIABLE=PRESELECT, NUMBER INTERVAL=2000
*NODE OUTPUT
 RF, U, NT
*ELEMENT OUTPUT, ELSET=ALLE
 S, LE, SDV, HFL
*OUTPUT, HISTORY, FREQUENCY=500
*ENERGY OUTPUT, ELSET=ALLE, VARIABLE=ALL
*END STEP