**
** HYDRA GENERATED
** material   : COH
** delta_0    : 0.00075
** delta_1    : 0.00975
** delta_F    : 0.0157
** t0         : 2600.0
** n01        : 200
** n1f        : 200
** hydr. dec. : True
** tr. stress : False
**
*MATERIAL, NAME=COH
*USER DEFINED FIELD
*DEPVAR
1
1, K
*ELASTIC, TYPE=TRACTION, DEPENDENCIES=1
3.46667E+05, 3.46667E+05,  ,  ,  0.10
3.46667E+06, 3.46667E+06,  ,  ,  1.00
*DAMAGE INITIATION, CRITERION=MAXE
0.00075, 0.00075
*DAMAGE EVOLUTION, TYPE=DISPLACEMENT, SOFTENING=TABULAR
0.000000, 0
0.009231, 6.98758E-06
0.018462, 1.41066E-05
0.027692, 2.13608E-05
0.036923, 2.8754E-05
0.046154, 3.62903E-05
0.055385, 4.39739E-05
0.064615, 5.18092E-05
0.073846, 5.98007E-05
0.083077, 6.7953E-05
0.092308, 7.62712E-05
0.101538, 8.47603E-05
0.107143, 9E-05
0.110769, 9.34256E-05
0.120000, 0.000102273
0.129231, 0.000111307
0.138462, 0.000120536
0.147692, 0.000129964
0.156923, 0.000139599
0.166154, 0.000149446
** ... 380 like lines cut
