 Abaqus/Standard 2022                  DATE 02-Oct-2023 TIME 22:21:06
 SUMMARY OF JOB INFORMATION:
 STEP  INC ATT SEVERE EQUIL TOTAL  TOTAL      STEP       INC OF       DOF    IF
               DISCON ITERS ITERS  TIME/    TIME/LPF    TIME/LPF    MONITOR RIKS
               ITERS               FREQ
   1     1   1     0     2     2  0.500      0.500      0.5000    
   1     2   1     0     1     1  1.00       1.00       0.5000    
                          
 THE ANALYSIS HAS COMPLETED SUCCESSFULLY
