*MATERIAL, NAME=AISI
*ELASTIC
220000., 0.3
*PLASTIC
 713.81, 0.000
 736.74, 0.001
 755.56, 0.002
 771.58, 0.003
 785.56, 0.004
 798.00, 0.005
 809.21, 0.006
 819.43, 0.007
 828.83, 0.008
 837.53, 0.009
 845.65, 0.010
 853.26, 0.011
 860.42, 0.012
 867.18, 0.013
 873.60, 0.014
 879.70, 0.015
 885.52, 0.016
 891.08, 0.017
 896.41, 0.018
 901.53, 0.019
** ... 33 like lines cut
