*Material, name=AISI
*Density
1.,
*Elastic
220000., 0.3
*Plastic, DEPENDENCIES=1
 713.81, 0.000, , 0.0
 736.74, 0.001, , 0.0
 755.56, 0.002, , 0.0
 771.58, 0.003, , 0.0
 785.56, 0.004, , 0.0
 798.00, 0.005, , 0.0
 809.21, 0.006, , 0.0
 819.43, 0.007, , 0.0
 828.83, 0.008, , 0.0
 837.53, 0.009, , 0.0
 845.65, 0.010, , 0.0
 853.26, 0.011, , 0.0
 860.42, 0.012, , 0.0
 867.18, 0.013, , 0.0
 873.60, 0.014, , 0.0
 879.70, 0.015, , 0.0
 885.52, 0.016, , 0.0
 891.08, 0.017, , 0.0
 896.41, 0.018, , 0.0
 901.53, 0.019, , 0.0
** ... 33 like lines cut
*User Material, constants=1, type=THERMAL
 1.0e-03
** hydrostatic press. gradient
*USER OUTPUT VARIABLES
 2
*USER DEFINED FIELD
*DEPVAR
 8