*Heading
*Preprint, echo=NO, model=NO, history=NO, contact=NO
**
** PARTS
**
*Node
      1,  0.600000024,           0.
      2,  0.600000024,  0.400000006
      3,          0.5,  0.400000006
      4,           0.,  0.400000006
      5,           0.,           0.
      6,           1.,  0.400000006
      7,           1.,           0.
      8,           1.,           1.
      9,  0.600000024,          0.5
     10,  0.600000024,           1.
     11,           0.,          0.5
     12,          0.5,          0.5
     13,          0.5,           1.
     14,           0.,           1.
     15,  0.600000024,  0.100000001
     16,  0.600000024,  0.200000003
     17,  0.600000024,  0.300000012
     18,  0.400000006,  0.400000006
     19,  0.300000012,  0.400000006
     20,  0.200000003,  0.400000006
** ... 203 like lines cut
*Element, type=CPE4R
 1,   1,  15,  89,  29
 2,  15,  16,  90,  89
 3,  16,  17,  91,  90
 4,  17,   2,   3,  91
 5,  29,  89,  92,  28
 6,  89,  90,  93,  92
 7,  90,  91,  94,  93
 8,  91,   3,  18,  94
 9,  28,  92,  95,  27
10,  92,  93,  96,  95
11,  93,  94,  97,  96
12,  94,  18,  19,  97
13,  27,  95,  98,  26
14,  95,  96,  99,  98
15,  96,  97, 100,  99
16,  97,  19,  20, 100
17,  26,  98, 101,  25
18,  98,  99, 102, 101
19,  99, 100, 103, 102
20, 100,  20,  21, 103
** ... 177 like lines cut
*Nset, nset=HYDRA, generate
   1,  223,    1
*Elset, elset=HYDRA, generate
   1,  197,    1
** Section: Section-1
*Solid Section, elset=HYDRA, material=Material-1
1.,
**
*Nset, nset= SYM_X
  1,  5,  7, 25, 26, 27, 28, 29, 33, 34, 35
*Elset, elset= SYM_X
  1,  5,  9, 13, 17, 21, 37, 38, 39, 40
*Nset, nset=ASYM_Y
  4,  5, 11, 14, 22, 23, 24, 78, 79, 80, 81, 82, 83, 84, 85, 86
*Elset, elset=ASYM_Y
  21,  22,  23,  24,  65,  75,  85,  95, 105, 115, 125, 135, 145, 155, 185
**
** MATERIALS
**
*Material, name=Material-1
*Elastic
1., 0.3
*USER OUTPUT VARIABLES
2
** ----------------------------------------------------------------
**
** STEP: Step-1
**
*Step, name=Step-1
*Static, direct
0.1, 1.,
**
** BOUNDARY CONDITIONS
**
** Name: BCX Type: Symmetry/Antisymmetry/Encastre
*Boundary
 SYM_X, XSYMM
ASYM_Y, YASYMM
**
** LOADS
**
*Cload
7, 1, 0.00166667
36, 1, 0.01000000
37, 1, 0.02000000
38, 1, 0.03000000
6, 1, 0.04000000
39, 1, 0.05000000
40, 1, 0.06000000
41, 1, 0.07000000
42, 1, 0.08000000
43, 1, 0.09000000
8, 1, 0.04833333
**
** OUTPUT REQUESTS
**
*Restart, write, frequency=0
**
** FIELD OUTPUT: F-Output-1
**
*Output, field
*Element Output, directions=YES
UVARM,
*Output, field, variable=PRESELECT
*EL FILE,ELSET=HYDRA,POSITION=AVERAGED
SINV,UVARM
**
** HISTORY OUTPUT: H-Output-1
**
*Output, history, variable=PRESELECT
*End Step
