*Heading
*Preprint, echo=NO, model=NO, history=NO, contact=NO
**
** PARTS
**
*Node
      1,           0.,           0.
      2, 0.0500000007,           0.
      3,  0.100000001,           0.
      4,  0.150000006,           0.
      5,  0.200000003,           0.
      6,         0.25,           0.
      7,  0.300000012,           0.
      8,  0.349999994,           0.
      9,  0.400000006,           0.
     10,  0.449999988,           0.
     11,          0.5,           0.
     12,  0.550000012,           0.
     13,  0.600000024,           0.
     14,  0.649999976,           0.
     15,  0.699999988,           0.
     16,         0.75,           0.
     17,  0.800000012,           0.
     18,  0.850000024,           0.
     19,  0.899999976,           0.
     20,  0.949999988,           0.
** ... 421 like lines cut
*Element, type=CPE4R
  1,   1,   2,  23,  22
  2,   2,   3,  24,  23
  3,   3,   4,  25,  24
  4,   4,   5,  26,  25
  5,   5,   6,  27,  26
  6,   6,   7,  28,  27
  7,   7,   8,  29,  28
  8,   8,   9,  30,  29
  9,   9,  10,  31,  30
 10,  10,  11,  32,  31
 11,  11,  12,  33,  32
 12,  12,  13,  34,  33
 13,  13,  14,  35,  34
 14,  14,  15,  36,  35
 15,  15,  16,  37,  36
 16,  16,  17,  38,  37
 17,  17,  18,  39,  38
 18,  18,  19,  40,  39
 19,  19,  20,  41,  40
 20,  20,  21,  42,  41
** ... 380 like lines cut
*Nset, nset=HYDRA, generate
   1,  441,    1
*Elset, elset=HYDRA, generate
   1,  400,    1
*Solid Section, elset=HYDRA, material=Material-1
1.,
**
*Nset, nset=SYM_X, generate
  1,   21,   1
*Elset, elset=SYM_X, generate
  1,   20,   1
*Nset, nset=ASYM_Y, generate
  1,  421,  21
*Elset, elset=ASYM_Y, generate
  1,  381,  20
**
** MATERIALS
**
*Material, name=Material-1
*Elastic
1., 0.3
*USER OUTPUT VARIABLES
2
** ----------------------------------------------------------------
**
** STEP: Step-1
**
*Step, name=Step-1
*Static, direct
0.1, 1.,
**
** BOUNDARY CONDITIONS
**
*Boundary
 SYM_X, XSYMM
ASYM_Y, YASYMM
     1, 2,2,0.0
**
** LOADS
**
*Cload
21, 1, 0.00041667
42, 1, 0.00250000
63, 1, 0.00500000
84, 1, 0.00750000
105, 1, 0.01000000
126, 1, 0.01250000
147, 1, 0.01500000
168, 1, 0.01750000
189, 1, 0.02000000
210, 1, 0.02250000
231, 1, 0.02500000
252, 1, 0.02750000
273, 1, 0.03000000
294, 1, 0.03250000
315, 1, 0.03500000
336, 1, 0.03750000
357, 1, 0.04000000
378, 1, 0.04250000
399, 1, 0.04500000
420, 1, 0.04750000
441, 1, 0.02458333
**
** OUTPUT REQUESTS
**
*Restart, write, frequency=0
**
** FIELD OUTPUT: F-Output-1
**
*Output, field
*Element Output, directions=YES
UVARM,
*Output, field, variable=PRESELECT
*EL FILE,ELSET=HYDRA,POSITION=AVERAGED
SINV,UVARM
**
** HISTORY OUTPUT: H-Output-1
**
*Output, history, variable=PRESELECT
*End Step
