*Heading
*Preprint, echo=NO, model=NO, history=NO, contact=NO
**
** PARTS
**
*Node
      1,          0.5,          0.5
      2,          0.5,           1.
      3,           0.,           1.
      4,           0.,          0.5
      5,           1.,           0.
      6,           0.,           0.
      7,           1.,           1.
      8,          0.5,  0.550000012
      9,          0.5,  0.600000024
     10,          0.5,  0.649999976
     11,          0.5,  0.699999988
     12,          0.5,         0.75
     13,          0.5,  0.800000012
     14,          0.5,  0.850000024
     15,          0.5,  0.899999976
     16,          0.5,  0.949999988
     17,  0.449999988,           1.
     18,  0.400000006,           1.
     19,  0.349999994,           1.
     20,  0.300000012,           1.
** ... 248 like lines cut
*Element, type=CPE4R
  1,   1,   8,  80,  43
  2,   8,   9,  81,  80
  3,   9,  10,  82,  81
  4,  10,  11,  83,  82
  5,  11,  12,  84,  83
  6,  12,  13,  85,  84
  7,  13,  14,  86,  85
  8,  14,  15,  87,  86
  9,  15,  16,  88,  87
 10,  16,   2,  17,  88
 11,  43,  80,  89,  42
 12,  80,  81,  90,  89
 13,  81,  82,  91,  90
 14,  82,  83,  92,  91
 15,  83,  84,  93,  92
 16,  84,  85,  94,  93
 17,  85,  86,  95,  94
 18,  86,  87,  96,  95
 19,  87,  88,  97,  96
 20,  88,  17,  18,  97
** ... 220 like lines cut
*Nset, nset=HYDRA, generate
   1,  268,    1
*Elset, elset=HYDRA, generate
   1,  240,    1
*Solid Section, elset=HYDRA, material=Material-1
1.,
**
*Nset, nset= SYM_X
  5,  6, 56, 57, 58, 59, 60, 61, 62, 63, 64
*Elset, elset= SYM_X, generate
 101,  164,    7
*Nset, nset=ASYM_Y
  3,  4,  6, 26, 27, 28, 29, 30, 31, 32, 33, 34, 50, 51, 52, 53
 54, 55
*Elset, elset=ASYM_Y
  91,  92,  93,  94,  95,  96,  97,  98,  99, 100, 164, 165, 166, 167, 168, 169
 170,
**
** MATERIALS
**
*Material, name=Material-1
*Elastic
1., 0.3
*USER OUTPUT VARIABLES
2
** ----------------------------------------------------------------
**
** STEP: Step-1
**
*Step, name=Step-1
*Static, direct
0.1, 1.,
**
** BOUNDARY CONDITIONS
**
*Boundary
 SYM_X, XSYMM
ASYM_Y, YASYMM
**
** LOADS
**
*Cload
5, 1, 0.00166667
65, 1, 0.01000000
66, 1, 0.02000000
67, 1, 0.03000000
68, 1, 0.04000000
69, 1, 0.05000000
70, 1, 0.06000000
71, 1, 0.07000000
72, 1, 0.08000000
73, 1, 0.09000000
7, 1, 0.04833333
**
** OUTPUT REQUESTS
**
*Restart, write, frequency=0
**
** FIELD OUTPUT: F-Output-1
**
*Output, field
*Element Output, directions=YES
UVARM,
*Output, field, variable=PRESELECT
*EL FILE,ELSET=HYDRA,POSITION=AVERAGED
SINV,UVARM
**
** HISTORY OUTPUT: H-Output-1
**
*Output, history, variable=PRESELECT
*End Step
