**
** HYDRA GENERATED
** material   : COH
** delta_0    : 0.00022
** delta_1    : 0.0097
** delta_F    : 0.015
** t0         : 1000.0
** n01        : 200
** n1f        : 200
** hydr. dec. : True
** tr. stress : False
**
*MATERIAL, NAME=COH
*USER DEFINED FIELD
*DEPVAR
1
1, K
*ELASTIC, TYPE=TRACTION, DEPENDENCIES=1
4.54545E+05, 4.54545E+05,  ,  ,  0.10
4.54545E+06, 4.54545E+06,  ,  ,  1.00
*DAMAGE INITIATION, CRITERION=MAXE
0.00022, 0.00022
*DAMAGE EVOLUTION, TYPE=DISPLACEMENT, SOFTENING=TABULAR
0.000000, 0
0.009773, 2.17132E-06
0.019546, 4.38594E-06
0.029320, 6.64514E-06
0.039093, 8.9503E-06
0.048866, 1.13028E-05
0.058639, 1.37042E-05
0.068412, 1.6156E-05
0.078186, 1.86597E-05
0.087959, 2.12172E-05
0.097732, 2.383E-05
0.107505, 2.65E-05
0.117278, 2.92292E-05
0.127052, 3.20195E-05
0.136825, 3.48729E-05
0.146598, 3.77917E-05
0.156371, 4.07782E-05
0.166144, 4.38346E-05
0.175918, 4.69636E-05
0.185691, 5.01676E-05
** ... 380 like lines cut
